#======================================================================

# CRYSTAL DATA

#----------------------------------------------------------------------

data_VESTA_phase_1


_pd_phase_name                         'C8 H9 N1 O2'
_cell_length_a                         12.872(3)
_cell_length_b                         9.370(2)
_cell_length_c                         7.085(2)
_cell_angle_alpha                      90
_cell_angle_beta                       115.62(2)
_cell_angle_gamma                      90
_symmetry_space_group_name_H-M         'P 21/a'
_symmetry_Int_Tables_number            14

loop_
_symmetry_equiv_pos_as_xyz
   'x, y, z'
   '-x, -y, -z'
   '-x+1/2, y+1/2, -z'
   'x+1/2, -y+1/2, z'

loop_
   _atom_site_label
   _atom_site_occupancy
   _atom_site_fract_x
   _atom_site_fract_y
   _atom_site_fract_z
   _atom_site_adp_type
   _atom_site_U_iso_or_equiv
   _atom_site_type_symbol
   C1         1.0     0.1286(4)     0.1743(4)    -0.0080(7)    Uiso 0.001 C
   C2         1.0     0.0562(4)     0.1740(4)     0.0889(7)    Uiso 0.001 C
   C3         1.0    -0.0397(5)     0.2648(4)     0.0159(7)    Uiso 0.001 C
   C4         1.0    -0.0607(4)     0.3546(4)    -0.1515(7)    Uiso 0.001 C
   C5         1.0     0.0131(4)     0.3568(4)    -0.2462(7)    Uiso 0.001 C
   C6         1.0     0.1088(5)     0.2654(4)    -0.1729(7)    Uiso 0.001 C
   C7         1.0    -0.2194(4)     0.5049(4)    -0.4002(7)    Uiso 0.001 C
   C8         1.0    -0.3246(6)     0.5896(7)    -0.4178(10)   Uiso 0.001 C
   N1         1.0    -0.1598(3)     0.4434(3)    -0.2136(5)    Uiso 0.001 N
   O1         1.0     0.2220(5)     0.0860(7)     0.0570(10)   Uiso 0.001 O
   O2         1.0    -0.1922(5)     0.4972(5)    -0.5453(8)    Uiso 0.001 O
   H1         1.0     0.2432(9)     0.0469(8)     0.1946(16)   Uiso 0.001 H
   H2         1.0     0.0711(10)    0.1058(11)    0.2204(18)   Uiso 0.001 H
   H3         1.0    -0.0975(10)    0.2638(10)    0.0856(16)   Uiso 0.001 H
   H5         1.0     0.0001(9)     0.4264(10)   -0.3716(17)   Uiso 0.001 H
   H6         1.0     0.1697(11)    0.2701(9)    -0.2399(17)   Uiso 0.001 H
   H7         1.0    -0.1912(9)     0.4516(8)    -0.1106(16)   Uiso 0.001 H
   H8         1.0    -0.3040(16)    0.690(2)     -0.384(4)     Uiso 0.001 H
   H9         1.0    -0.386(2)      0.594(2)     -0.568(4)     Uiso 0.001 H
   H10        1.0    -0.351(2)      0.560(3)     -0.321(6)     Uiso 0.001 H
