
data_
_chemical_name_mineral ?P4mm?
_cell_length_a 4
_cell_length_b 4
_cell_length_c 4.03
_cell_angle_alpha 90
_cell_angle_beta 90
_cell_angle_gamma 90
_cell_volume 64.48
_symmetry_space_group_name_H-M P4mm
loop_
	_symmetry_equiv_pos_as_xyz
	 'x, y, z '
	 '-x, y, z '
	 '-y, -x, z '
	 '-y, x, z '
	 'y, -x, z '
	 'y, x, z '
	 'x, -y, z '
	 '-x, -y, z '
loop_
_atom_site_label
_atom_site_type_symbol
_atom_site_symmetry_multiplicity
_atom_site_fract_x
_atom_site_fract_y
_atom_site_fract_z
_atom_site_occupancy
_atom_site_B_iso_or_equiv
Ba Ba   1 0 0 0 1 0.7303623
Ti Ti   1 0.5 0.5 0.52 1 0.7303623
O1 O   1 0.5 0.5 -0.001 1 0.7303623
O2 O   2 0 0.5 0.48 1 0.7303623